data_image0
_cell_length_a       8
_cell_length_b       8
_cell_length_c       4
_cell_angle_alpha    90
_cell_angle_beta     90
_cell_angle_gamma    90

_symmetry_space_group_name_H-M    "P 1"
_symmetry_int_tables_number       1

loop_
  _symmetry_equiv_pos_as_xyz
  'x, y, z'

loop_
  _atom_site_label
  _atom_site_occupancy
  _atom_site_fract_x
  _atom_site_fract_y
  _atom_site_fract_z
  _atom_site_thermal_displace_type
  _atom_site_B_iso_or_equiv
  _atom_site_type_symbol
  Ti1      1.0000 0.01242  0.99654  0.03238  Biso   1.000  Ti
  O1       1.0000 0.28808  0.99415  0.98829  Biso   1.000  O 
  O2       1.0000 0.03948  0.26919  0.97653  Biso   1.000  O 
  Ti2      1.0000 0.01356  0.48841  0.97671  Biso   1.000  Ti
  O3       1.0000 0.25605  0.45217  0.91375  Biso   1.000  O 
  O4       1.0000 0.98594  0.72468  0.01571  Biso   1.000  O 
  Ti3      1.0000 0.47730  0.96469  0.07328  Biso   1.000  Ti
  O5       1.0000 0.74436  0.00169  0.92876  Biso   1.000  O 
  O6       1.0000 0.48639  0.25277  0.94245  Biso   1.000  O 
  Ti4      1.0000 0.50939  0.48498  0.98542  Biso   1.000  Ti
  O7       1.0000 0.73496  0.54631  0.99933  Biso   1.000  O 
  O8       1.0000 0.47356  0.77056  0.93896  Biso   1.000  O 
  Sr1      1.0000 0.25522  0.20101  0.43359  Biso   1.000  Sr
  O9       1.0000 0.50492  0.51846  0.50857  Biso   1.000  O 
  Sr2      1.0000 0.24711  0.74247  0.42607  Biso   1.000  Sr
  O10      1.0000 0.48200  0.98848  0.55286  Biso   1.000  O 
  Sr3      1.0000 0.75859  0.20592  0.51620  Biso   1.000  Sr
  O11      1.0000 0.99037  0.48308  0.53058  Biso   1.000  O 
  Sr4      1.0000 0.77577  0.77328  0.45804  Biso   1.000  Sr
  O12      1.0000 0.99227  0.00828  0.54878  Biso   1.000  O 
