data_image0
_cell_length_a       7.56311
_cell_length_b       7.56309
_cell_length_c       9.69939
_cell_angle_alpha    90.0155
_cell_angle_beta     89.9984
_cell_angle_gamma    90

_symmetry_space_group_name_H-M    "P 1"
_symmetry_int_tables_number       1

loop_
  _symmetry_equiv_pos_as_xyz
  'x, y, z'

loop_
  _atom_site_label
  _atom_site_occupancy
  _atom_site_fract_x
  _atom_site_fract_y
  _atom_site_fract_z
  _atom_site_thermal_displace_type
  _atom_site_B_iso_or_equiv
  _atom_site_type_symbol
  Ti1      1.0000 0.01242  0.99654  0.01619  Biso   1.000  Ti
  O1       1.0000 0.26242  0.99658  0.02343  Biso   1.000  O 
  O2       1.0000 0.01241  0.24656  0.02345  Biso   1.000  O 
  Ti2      1.0000 0.01242  0.49655  0.01619  Biso   1.000  Ti
  O3       1.0000 0.26242  0.49658  0.02343  Biso   1.000  O 
  O4       1.0000 0.01242  0.74656  0.02341  Biso   1.000  O 
  Ti3      1.0000 0.51242  0.99655  0.01620  Biso   1.000  Ti
  O5       1.0000 0.76242  0.99657  0.02343  Biso   1.000  O 
  O6       1.0000 0.51242  0.24656  0.02342  Biso   1.000  O 
  Ti4      1.0000 0.51242  0.49655  0.01620  Biso   1.000  Ti
  O7       1.0000 0.76242  0.49658  0.02343  Biso   1.000  O 
  O8       1.0000 0.51241  0.74656  0.02345  Biso   1.000  O 
  Ti5      1.0000 0.26244  0.24632  0.34161  Biso   1.000  Ti
  O9       1.0000 0.51244  0.24630  0.33436  Biso   1.000  O 
  O10      1.0000 0.26244  0.49631  0.33437  Biso   1.000  O 
  Ti6      1.0000 0.26244  0.74632  0.34160  Biso   1.000  Ti
  O11      1.0000 0.51244  0.74628  0.33437  Biso   1.000  O 
  O12      1.0000 0.26245  0.99631  0.33436  Biso   1.000  O 
  Ti7      1.0000 0.76244  0.24632  0.34161  Biso   1.000  Ti
  O13      1.0000 0.01244  0.24628  0.33439  Biso   1.000  O 
  O14      1.0000 0.76245  0.49631  0.33436  Biso   1.000  O 
  Ti8      1.0000 0.76244  0.74632  0.34160  Biso   1.000  Ti
  O15      1.0000 0.01244  0.74630  0.33434  Biso   1.000  O 
  O16      1.0000 0.76244  0.99631  0.33436  Biso   1.000  O 
  Sr1      1.0000 0.01243  0.99639  0.54673  Biso   1.000  Sr
  O17      1.0000 0.26245  0.24639  0.54701  Biso   1.000  O 
  Sr2      1.0000 0.01244  0.49639  0.54673  Biso   1.000  Sr
  O18      1.0000 0.26242  0.74639  0.54700  Biso   1.000  O 
  Sr3      1.0000 0.51244  0.99639  0.54673  Biso   1.000  Sr
  O19      1.0000 0.76242  0.24640  0.54700  Biso   1.000  O 
  Sr4      1.0000 0.51243  0.49639  0.54673  Biso   1.000  Sr
  O20      1.0000 0.76245  0.74639  0.54700  Biso   1.000  O 
  Sr5      1.0000 0.26243  0.24648  0.81107  Biso   1.000  Sr
  O21      1.0000 0.51242  0.49649  0.81080  Biso   1.000  O 
  Sr6      1.0000 0.26242  0.74648  0.81106  Biso   1.000  Sr
  O22      1.0000 0.51243  0.99647  0.81080  Biso   1.000  O 
  Sr7      1.0000 0.76242  0.24648  0.81107  Biso   1.000  Sr
  O23      1.0000 0.01243  0.49646  0.81080  Biso   1.000  O 
  Sr8      1.0000 0.76243  0.74648  0.81106  Biso   1.000  Sr
  O24      1.0000 0.01242  0.99649  0.81079  Biso   1.000  O 
