data_image0
_cell_length_a       7.38804
_cell_length_b       7.39696
_cell_length_c       10.1035
_cell_angle_alpha    90.5327
_cell_angle_beta     91.1558
_cell_angle_gamma    90.0248

_symmetry_space_group_name_H-M    "P 1"
_symmetry_int_tables_number       1

loop_
  _symmetry_equiv_pos_as_xyz
  'x, y, z'

loop_
  _atom_site_label
  _atom_site_occupancy
  _atom_site_fract_x
  _atom_site_fract_y
  _atom_site_fract_z
  _atom_site_thermal_displace_type
  _atom_site_B_iso_or_equiv
  _atom_site_type_symbol
  Ti1      1.0000 0.01242  0.99654  0.01619  Biso   1.000  Ti
  O1       1.0000 0.27167  0.99888  0.02104  Biso   1.000  O 
  O2       1.0000 0.00876  0.25272  0.04045  Biso   1.000  O 
  Ti2      1.0000 0.02057  0.49831  0.05714  Biso   1.000  Ti
  O3       1.0000 0.27329  0.49404  0.04823  Biso   1.000  O 
  O4       1.0000 0.01493  0.74454  0.04201  Biso   1.000  O 
  Ti3      1.0000 0.53259  0.99718  0.01680  Biso   1.000  Ti
  O5       1.0000 0.75906  0.97735  0.94926  Biso   1.000  O 
  O6       1.0000 0.52850  0.24967  0.04076  Biso   1.000  O 
  Ti4      1.0000 0.52347  0.49938  0.06026  Biso   1.000  Ti
  O7       1.0000 0.77234  0.49118  0.05351  Biso   1.000  O 
  O8       1.0000 0.52576  0.74383  0.03916  Biso   1.000  O 
  Sr1      1.0000 0.27919  0.23461  0.25281  Biso   1.000  Sr
  O9       1.0000 0.51839  0.49560  0.25950  Biso   1.000  O 
  Sr2      1.0000 0.27198  0.75482  0.24802  Biso   1.000  Sr
  O10      1.0000 0.53188  0.99640  0.23538  Biso   1.000  O 
  Sr3      1.0000 0.77263  0.24311  0.26521  Biso   1.000  Sr
  O11      1.0000 0.01390  0.49678  0.25753  Biso   1.000  O 
  Sr4      1.0000 0.77874  0.74712  0.26245  Biso   1.000  Sr
  O12      1.0000 0.99982  0.99519  0.24204  Biso   1.000  O 
  Sr5      1.0000 0.02256  0.00275  0.51958  Biso   1.000  Sr
  O13      1.0000 0.27319  0.24545  0.52771  Biso   1.000  O 
  Sr6      1.0000 0.01464  0.49303  0.53435  Biso   1.000  Sr
  O14      1.0000 0.27587  0.74780  0.52696  Biso   1.000  O 
  Sr7      1.0000 0.52589  0.99748  0.52011  Biso   1.000  Sr
  O15      1.0000 0.77295  0.23085  0.55122  Biso   1.000  O 
  Sr8      1.0000 0.53003  0.49862  0.53136  Biso   1.000  Sr
  O16      1.0000 0.77220  0.76042  0.54664  Biso   1.000  O 
  Ti5      1.0000 0.27254  0.24479  0.72596  Biso   1.000  Ti
  O17      1.0000 0.51802  0.23871  0.74412  Biso   1.000  O 
  O18      1.0000 0.26804  0.49569  0.73820  Biso   1.000  O 
  Ti6      1.0000 0.27142  0.74811  0.72750  Biso   1.000  Ti
  O19      1.0000 0.51966  0.74980  0.74504  Biso   1.000  O 
  O20      1.0000 0.27528  0.99704  0.73113  Biso   1.000  O 
  Ti7      1.0000 0.77475  0.23563  0.76723  Biso   1.000  Ti
  O21      1.0000 0.02389  0.23839  0.74533  Biso   1.000  O 
  O22      1.0000 0.77167  0.49654  0.76220  Biso   1.000  O 
  Ti8      1.0000 0.77192  0.75265  0.76677  Biso   1.000  Ti
  O23      1.0000 0.02738  0.75388  0.74307  Biso   1.000  O 
  O24      1.0000 0.79692  0.00696  0.83653  Biso   1.000  O 
