data_image0
_cell_length_a       7.71207
_cell_length_b       7.71207
_cell_length_c       17.7108
_cell_angle_alpha    90.0007
_cell_angle_beta     89.9986
_cell_angle_gamma    90

_symmetry_space_group_name_H-M    "P 1"
_symmetry_int_tables_number       1

loop_
  _symmetry_equiv_pos_as_xyz
  'x, y, z'

loop_
  _atom_site_label
  _atom_site_occupancy
  _atom_site_fract_x
  _atom_site_fract_y
  _atom_site_fract_z
  _atom_site_thermal_displace_type
  _atom_site_B_iso_or_equiv
  _atom_site_type_symbol
  Sr1      1.0000 0.01242  0.99654  0.00810  Biso   1.000  Sr
  O1       1.0000 0.26242  0.24654  0.00806  Biso   1.000  O 
  Sr2      1.0000 0.01242  0.49654  0.00810  Biso   1.000  Sr
  O2       1.0000 0.26242  0.74654  0.00806  Biso   1.000  O 
  Sr3      1.0000 0.51242  0.99654  0.00810  Biso   1.000  Sr
  O3       1.0000 0.76242  0.24654  0.00806  Biso   1.000  O 
  Sr4      1.0000 0.51242  0.49654  0.00810  Biso   1.000  Sr
  O4       1.0000 0.76242  0.74654  0.00806  Biso   1.000  O 
  Ti1      1.0000 0.26241  0.24655  0.12240  Biso   1.000  Ti
  O5       1.0000 0.51241  0.24655  0.12277  Biso   1.000  O 
  O6       1.0000 0.26241  0.49655  0.12277  Biso   1.000  O 
  Ti2      1.0000 0.26241  0.74655  0.12240  Biso   1.000  Ti
  O7       1.0000 0.51241  0.74655  0.12277  Biso   1.000  O 
  O8       1.0000 0.26241  0.99655  0.12277  Biso   1.000  O 
  Ti3      1.0000 0.76241  0.24655  0.12240  Biso   1.000  Ti
  O9       1.0000 0.01241  0.24655  0.12277  Biso   1.000  O 
  O10      1.0000 0.76241  0.49655  0.12277  Biso   1.000  O 
  Ti4      1.0000 0.76241  0.74655  0.12240  Biso   1.000  Ti
  O11      1.0000 0.01241  0.74655  0.12277  Biso   1.000  O 
  O12      1.0000 0.76241  0.99655  0.12277  Biso   1.000  O 
  Sr5      1.0000 0.01241  0.99655  0.23936  Biso   1.000  Sr
  O13      1.0000 0.26241  0.24655  0.23716  Biso   1.000  O 
  Sr6      1.0000 0.01241  0.49655  0.23936  Biso   1.000  Sr
  O14      1.0000 0.26240  0.74655  0.23716  Biso   1.000  O 
  Sr7      1.0000 0.51241  0.99655  0.23936  Biso   1.000  Sr
  O15      1.0000 0.76240  0.24655  0.23716  Biso   1.000  O 
  Sr8      1.0000 0.51241  0.49655  0.23936  Biso   1.000  Sr
  O16      1.0000 0.76241  0.74655  0.23716  Biso   1.000  O 
  Ti5      1.0000 0.26240  0.24655  0.34817  Biso   1.000  Ti
  O17      1.0000 0.51240  0.24655  0.35238  Biso   1.000  O 
  O18      1.0000 0.26240  0.49655  0.35238  Biso   1.000  O 
  Ti6      1.0000 0.26240  0.74655  0.34817  Biso   1.000  Ti
  O19      1.0000 0.51240  0.74655  0.35238  Biso   1.000  O 
  O20      1.0000 0.26240  0.99655  0.35238  Biso   1.000  O 
  Ti7      1.0000 0.76240  0.24655  0.34817  Biso   1.000  Ti
  O21      1.0000 0.01240  0.24655  0.35238  Biso   1.000  O 
  O22      1.0000 0.76240  0.49655  0.35238  Biso   1.000  O 
  Ti8      1.0000 0.76240  0.74655  0.34817  Biso   1.000  Ti
  O23      1.0000 0.01240  0.74655  0.35238  Biso   1.000  O 
  O24      1.0000 0.76240  0.99655  0.35238  Biso   1.000  O 
  Ti9      1.0000 0.01244  0.99653  0.52666  Biso   1.000  Ti
  O25      1.0000 0.26244  0.99653  0.52267  Biso   1.000  O 
  O26      1.0000 0.01245  0.24653  0.52266  Biso   1.000  O 
  Ti10     1.0000 0.01244  0.49653  0.52666  Biso   1.000  Ti
  O27      1.0000 0.26245  0.49653  0.52267  Biso   1.000  O 
  O28      1.0000 0.01244  0.74653  0.52267  Biso   1.000  O 
  Ti11     1.0000 0.51244  0.99653  0.52666  Biso   1.000  Ti
  O29      1.0000 0.76245  0.99653  0.52267  Biso   1.000  O 
  O30      1.0000 0.51244  0.24653  0.52267  Biso   1.000  O 
  Ti12     1.0000 0.51244  0.49653  0.52666  Biso   1.000  Ti
  O31      1.0000 0.76244  0.49653  0.52267  Biso   1.000  O 
  O32      1.0000 0.51245  0.74653  0.52266  Biso   1.000  O 
  Sr9      1.0000 0.26244  0.24653  0.63600  Biso   1.000  Sr
  O33      1.0000 0.51244  0.49654  0.63664  Biso   1.000  O 
  Sr10     1.0000 0.26244  0.74653  0.63600  Biso   1.000  Sr
  O34      1.0000 0.51244  0.99653  0.63664  Biso   1.000  O 
  Sr11     1.0000 0.76244  0.24653  0.63600  Biso   1.000  Sr
  O35      1.0000 0.01244  0.49653  0.63664  Biso   1.000  O 
  Sr12     1.0000 0.76244  0.74653  0.63600  Biso   1.000  Sr
  O36      1.0000 0.01244  0.99654  0.63664  Biso   1.000  O 
  Sr13     1.0000 0.01243  0.99654  0.77844  Biso   1.000  Sr
  O37      1.0000 0.26243  0.24654  0.77999  Biso   1.000  O 
  Sr14     1.0000 0.01243  0.49654  0.77844  Biso   1.000  Sr
  O38      1.0000 0.26243  0.74654  0.77999  Biso   1.000  O 
  Sr15     1.0000 0.51243  0.99654  0.77844  Biso   1.000  Sr
  O39      1.0000 0.76243  0.24654  0.77999  Biso   1.000  O 
  Sr16     1.0000 0.51243  0.49654  0.77844  Biso   1.000  Sr
  O40      1.0000 0.76243  0.74654  0.77999  Biso   1.000  O 
  Ti13     1.0000 0.26242  0.24654  0.89318  Biso   1.000  Ti
  O41      1.0000 0.51242  0.24654  0.89332  Biso   1.000  O 
  O42      1.0000 0.26242  0.49654  0.89331  Biso   1.000  O 
  Ti14     1.0000 0.26242  0.74654  0.89318  Biso   1.000  Ti
  O43      1.0000 0.51242  0.74654  0.89331  Biso   1.000  O 
  O44      1.0000 0.26242  0.99654  0.89332  Biso   1.000  O 
  Ti15     1.0000 0.76242  0.24654  0.89318  Biso   1.000  Ti
  O45      1.0000 0.01242  0.24654  0.89331  Biso   1.000  O 
  O46      1.0000 0.76242  0.49654  0.89332  Biso   1.000  O 
  Ti16     1.0000 0.76242  0.74654  0.89318  Biso   1.000  Ti
  O47      1.0000 0.01242  0.74654  0.89332  Biso   1.000  O 
  O48      1.0000 0.76242  0.99654  0.89331  Biso   1.000  O 
