data_image0
_cell_length_a       7.75574
_cell_length_b       7.88241
_cell_length_c       16.8905
_cell_angle_alpha    90
_cell_angle_beta     83.4082
_cell_angle_gamma    90

_symmetry_space_group_name_H-M    "P 1"
_symmetry_int_tables_number       1

loop_
  _symmetry_equiv_pos_as_xyz
  'x, y, z'

loop_
  _atom_site_label
  _atom_site_occupancy
  _atom_site_fract_x
  _atom_site_fract_y
  _atom_site_fract_z
  _atom_site_thermal_displace_type
  _atom_site_B_iso_or_equiv
  _atom_site_type_symbol
  Sr1      1.0000 0.01242  0.99654  0.00810  Biso   1.000  Sr
  O1       1.0000 0.26211  0.24654  0.00932  Biso   1.000  O 
  Sr2      1.0000 0.01242  0.49654  0.00810  Biso   1.000  Sr
  O2       1.0000 0.26211  0.74654  0.00932  Biso   1.000  O 
  Sr3      1.0000 0.51242  0.99654  0.00810  Biso   1.000  Sr
  O3       1.0000 0.76211  0.24654  0.00932  Biso   1.000  O 
  Sr4      1.0000 0.51242  0.49654  0.00810  Biso   1.000  Sr
  O4       1.0000 0.76211  0.74654  0.00932  Biso   1.000  O 
  Ti1      1.0000 0.23229  0.24654  0.12862  Biso   1.000  Ti
  O5       1.0000 0.48217  0.24654  0.12909  Biso   1.000  O 
  O6       1.0000 0.23251  0.49654  0.12774  Biso   1.000  O 
  Ti2      1.0000 0.23229  0.74654  0.12862  Biso   1.000  Ti
  O7       1.0000 0.48217  0.74654  0.12909  Biso   1.000  O 
  O8       1.0000 0.23251  0.99654  0.12774  Biso   1.000  O 
  Ti3      1.0000 0.73229  0.24654  0.12862  Biso   1.000  Ti
  O9       1.0000 0.98217  0.24654  0.12909  Biso   1.000  O 
  O10      1.0000 0.73251  0.49654  0.12774  Biso   1.000  O 
  Ti4      1.0000 0.73229  0.74654  0.12862  Biso   1.000  Ti
  O11      1.0000 0.98217  0.74654  0.12909  Biso   1.000  O 
  O12      1.0000 0.73251  0.99654  0.12774  Biso   1.000  O 
  Sr5      1.0000 0.95254  0.99654  0.24763  Biso   1.000  Sr
  O13      1.0000 0.20251  0.24654  0.24772  Biso   1.000  O 
  Sr6      1.0000 0.95254  0.49654  0.24763  Biso   1.000  Sr
  O14      1.0000 0.20251  0.74654  0.24772  Biso   1.000  O 
  Sr7      1.0000 0.45254  0.99654  0.24763  Biso   1.000  Sr
  O15      1.0000 0.70251  0.24654  0.24772  Biso   1.000  O 
  Sr8      1.0000 0.45254  0.49654  0.24763  Biso   1.000  Sr
  O16      1.0000 0.70251  0.74654  0.24772  Biso   1.000  O 
  Ti5      1.0000 0.17266  0.24654  0.36714  Biso   1.000  Ti
  O17      1.0000 0.42269  0.24654  0.36703  Biso   1.000  O 
  O18      1.0000 0.17268  0.49654  0.36707  Biso   1.000  O 
  Ti6      1.0000 0.17266  0.74654  0.36714  Biso   1.000  Ti
  O19      1.0000 0.42268  0.74654  0.36703  Biso   1.000  O 
  O20      1.0000 0.17268  0.99654  0.36707  Biso   1.000  O 
  Ti7      1.0000 0.67266  0.24654  0.36714  Biso   1.000  Ti
  O21      1.0000 0.92268  0.24654  0.36703  Biso   1.000  O 
  O22      1.0000 0.67268  0.49654  0.36707  Biso   1.000  O 
  Ti8      1.0000 0.67266  0.74654  0.36714  Biso   1.000  Ti
  O23      1.0000 0.92268  0.74654  0.36703  Biso   1.000  O 
  O24      1.0000 0.67268  0.99654  0.36707  Biso   1.000  O 
  Sr9      1.0000 0.89288  0.99654  0.48625  Biso   1.000  Sr
  O25      1.0000 0.14324  0.24654  0.48480  Biso   1.000  O 
  Sr10     1.0000 0.89288  0.49654  0.48625  Biso   1.000  Sr
  O26      1.0000 0.14324  0.74654  0.48480  Biso   1.000  O 
  Sr11     1.0000 0.39288  0.99654  0.48625  Biso   1.000  Sr
  O27      1.0000 0.64324  0.24654  0.48480  Biso   1.000  O 
  Sr12     1.0000 0.39288  0.49654  0.48625  Biso   1.000  Sr
  O28      1.0000 0.64324  0.74654  0.48480  Biso   1.000  O 
  Sr13     1.0000 0.10572  0.24654  0.63489  Biso   1.000  Sr
  O29      1.0000 0.35563  0.49654  0.63525  Biso   1.000  O 
  Sr14     1.0000 0.10572  0.74654  0.63489  Biso   1.000  Sr
  O30      1.0000 0.35563  0.99654  0.63525  Biso   1.000  O 
  Sr15     1.0000 0.60572  0.24654  0.63489  Biso   1.000  Sr
  O31      1.0000 0.85563  0.49654  0.63525  Biso   1.000  O 
  Sr16     1.0000 0.60572  0.74654  0.63489  Biso   1.000  Sr
  O32      1.0000 0.85563  0.99654  0.63525  Biso   1.000  O 
  Ti9      1.0000 0.82667  0.99654  0.75108  Biso   1.000  Ti
  O33      1.0000 0.07936  0.99654  0.74035  Biso   1.000  O 
  O34      1.0000 0.82176  0.24654  0.77075  Biso   1.000  O 
  Ti10     1.0000 0.82667  0.49654  0.75108  Biso   1.000  Ti
  O35      1.0000 0.07936  0.49654  0.74035  Biso   1.000  O 
  O36      1.0000 0.82176  0.74654  0.77075  Biso   1.000  O 
  Ti11     1.0000 0.32667  0.99654  0.75108  Biso   1.000  Ti
  O37      1.0000 0.57936  0.99654  0.74035  Biso   1.000  O 
  O38      1.0000 0.32176  0.24654  0.77075  Biso   1.000  O 
  Ti12     1.0000 0.32667  0.49654  0.75108  Biso   1.000  Ti
  O39      1.0000 0.57936  0.49654  0.74035  Biso   1.000  O 
  O40      1.0000 0.32176  0.74654  0.77075  Biso   1.000  O 
  Ti13     1.0000 0.29142  0.24654  0.89211  Biso   1.000  Ti
  O41      1.0000 0.53878  0.24654  0.90265  Biso   1.000  O 
  O42      1.0000 0.29632  0.49654  0.87249  Biso   1.000  O 
  Ti14     1.0000 0.29142  0.74654  0.89211  Biso   1.000  Ti
  O43      1.0000 0.53878  0.74654  0.90265  Biso   1.000  O 
  O44      1.0000 0.29632  0.99654  0.87248  Biso   1.000  O 
  Ti15     1.0000 0.79142  0.24654  0.89211  Biso   1.000  Ti
  O45      1.0000 0.03878  0.24654  0.90265  Biso   1.000  O 
  O46      1.0000 0.79632  0.49654  0.87248  Biso   1.000  O 
  Ti16     1.0000 0.79142  0.74654  0.89211  Biso   1.000  Ti
  O47      1.0000 0.03878  0.74654  0.90265  Biso   1.000  O 
  O48      1.0000 0.79632  0.99654  0.87249  Biso   1.000  O 
