data_image0
_cell_length_a       7.71037
_cell_length_b       7.86261
_cell_length_c       12.9721
_cell_angle_alpha    90
_cell_angle_beta     81.4545
_cell_angle_gamma    90

_symmetry_space_group_name_H-M    "P 1"
_symmetry_int_tables_number       1

loop_
  _symmetry_equiv_pos_as_xyz
  'x, y, z'

loop_
  _atom_site_label
  _atom_site_occupancy
  _atom_site_fract_x
  _atom_site_fract_y
  _atom_site_fract_z
  _atom_site_thermal_displace_type
  _atom_site_B_iso_or_equiv
  _atom_site_type_symbol
  Ti1      1.0000 0.01242  0.99654  0.01079  Biso   1.000  Ti
  O1       1.0000 0.26254  0.99654  0.01030  Biso   1.000  O 
  O2       1.0000 0.01215  0.24654  0.01188  Biso   1.000  O 
  Ti2      1.0000 0.01242  0.49654  0.01079  Biso   1.000  Ti
  O3       1.0000 0.26254  0.49654  0.01030  Biso   1.000  O 
  O4       1.0000 0.01215  0.74654  0.01188  Biso   1.000  O 
  Ti3      1.0000 0.51242  0.99654  0.01079  Biso   1.000  Ti
  O5       1.0000 0.76254  0.99654  0.01030  Biso   1.000  O 
  O6       1.0000 0.51215  0.24654  0.01188  Biso   1.000  O 
  Ti4      1.0000 0.51242  0.49654  0.01079  Biso   1.000  Ti
  O7       1.0000 0.76254  0.49654  0.01030  Biso   1.000  O 
  O8       1.0000 0.51215  0.74654  0.01188  Biso   1.000  O 
  Sr1      1.0000 0.22281  0.24654  0.16922  Biso   1.000  Sr
  O9       1.0000 0.47319  0.49654  0.16770  Biso   1.000  O 
  Sr2      1.0000 0.22281  0.74654  0.16922  Biso   1.000  Sr
  O10      1.0000 0.47319  0.99654  0.16770  Biso   1.000  O 
  Sr3      1.0000 0.72281  0.24654  0.16922  Biso   1.000  Sr
  O11      1.0000 0.97319  0.49654  0.16770  Biso   1.000  O 
  Sr4      1.0000 0.72281  0.74654  0.16922  Biso   1.000  Sr
  O12      1.0000 0.97319  0.99654  0.16770  Biso   1.000  O 
  Ti5      1.0000 0.93466  0.99654  0.32181  Biso   1.000  Ti
  O13      1.0000 0.18814  0.99654  0.30792  Biso   1.000  O 
  O14      1.0000 0.92826  0.24654  0.34744  Biso   1.000  O 
  Ti6      1.0000 0.93466  0.49654  0.32181  Biso   1.000  Ti
  O15      1.0000 0.18814  0.49654  0.30792  Biso   1.000  O 
  O16      1.0000 0.92826  0.74654  0.34744  Biso   1.000  O 
  Ti7      1.0000 0.43466  0.99654  0.32181  Biso   1.000  Ti
  O17      1.0000 0.68814  0.99654  0.30792  Biso   1.000  O 
  O18      1.0000 0.42826  0.24654  0.34744  Biso   1.000  O 
  Ti8      1.0000 0.43466  0.49654  0.32181  Biso   1.000  Ti
  O19      1.0000 0.68814  0.49654  0.30792  Biso   1.000  O 
  O20      1.0000 0.42826  0.74654  0.34744  Biso   1.000  O 
  Ti9      1.0000 0.38844  0.24654  0.50669  Biso   1.000  Ti
  O21      1.0000 0.63491  0.24654  0.52085  Biso   1.000  O 
  O22      1.0000 0.39486  0.49654  0.48102  Biso   1.000  O 
  Ti10     1.0000 0.38844  0.74654  0.50669  Biso   1.000  Ti
  O23      1.0000 0.63491  0.74654  0.52085  Biso   1.000  O 
  O24      1.0000 0.39486  0.99654  0.48102  Biso   1.000  O 
  Ti11     1.0000 0.88844  0.24654  0.50669  Biso   1.000  Ti
  O25      1.0000 0.13491  0.24654  0.52085  Biso   1.000  O 
  O26      1.0000 0.89486  0.49654  0.48102  Biso   1.000  O 
  Ti12     1.0000 0.88844  0.74654  0.50669  Biso   1.000  Ti
  O27      1.0000 0.13491  0.74654  0.52085  Biso   1.000  O 
  O28      1.0000 0.89486  0.99654  0.48102  Biso   1.000  O 
  Sr5      1.0000 0.10019  0.99654  0.65970  Biso   1.000  Sr
  O29      1.0000 0.35036  0.24654  0.65902  Biso   1.000  O 
  Sr6      1.0000 0.10019  0.49654  0.65970  Biso   1.000  Sr
  O30      1.0000 0.35036  0.74654  0.65902  Biso   1.000  O 
  Sr7      1.0000 0.60019  0.99654  0.65970  Biso   1.000  Sr
  O31      1.0000 0.85036  0.24654  0.65902  Biso   1.000  O 
  Sr8      1.0000 0.60019  0.49654  0.65970  Biso   1.000  Sr
  O32      1.0000 0.85036  0.74654  0.65902  Biso   1.000  O 
  Sr9      1.0000 0.30153  0.24654  0.85435  Biso   1.000  Sr
  O33      1.0000 0.55104  0.49654  0.85631  Biso   1.000  O 
  Sr10     1.0000 0.30153  0.74654  0.85435  Biso   1.000  Sr
  O34      1.0000 0.55104  0.99654  0.85631  Biso   1.000  O 
  Sr11     1.0000 0.80153  0.24654  0.85435  Biso   1.000  Sr
  O35      1.0000 0.05104  0.49654  0.85631  Biso   1.000  O 
  Sr12     1.0000 0.80153  0.74654  0.85435  Biso   1.000  Sr
  O36      1.0000 0.05104  0.99654  0.85631  Biso   1.000  O 
