data_image0
_cell_length_a       5.98326
_cell_length_b       6.75366
_cell_length_c       20.9536
_cell_angle_alpha    101.119
_cell_angle_beta     95.4291
_cell_angle_gamma    120.209

_symmetry_space_group_name_H-M    "P 1"
_symmetry_int_tables_number       1

loop_
  _symmetry_equiv_pos_as_xyz
  'x, y, z'

loop_
  _atom_site_label
  _atom_site_occupancy
  _atom_site_fract_x
  _atom_site_fract_y
  _atom_site_fract_z
  _atom_site_thermal_displace_type
  _atom_site_B_iso_or_equiv
  _atom_site_type_symbol
  Ba1      1.0000 0.00719  0.99725  0.06201  Biso   1.000  Ba
  O1       1.0000 0.90977  0.61340  0.11274  Biso   1.000  O 
  O2       1.0000 0.79038  0.26809  0.00220  Biso   1.000  O 
  O3       1.0000 0.39023  0.30817  0.02586  Biso   1.000  O 
  Al1      1.0000 0.66964  0.33296  0.06931  Biso   1.000  Al
  Ba2      1.0000 0.05614  0.88503  0.21775  Biso   1.000  Ba
  O4       1.0000 0.02106  0.21434  0.18174  Biso   1.000  O 
  O5       1.0000 0.56697  0.83479  0.18847  Biso   1.000  O 
  O6       1.0000 0.54388  0.10908  0.10945  Biso   1.000  O 
  Al2      1.0000 0.70292  0.12137  0.18623  Biso   1.000  Al
  Ba3      1.0000 0.38154  0.57287  0.25786  Biso   1.000  Ba
  O7       1.0000 0.37652  0.94476  0.32332  Biso   1.000  O 
  O8       1.0000 0.64914  0.28392  0.25086  Biso   1.000  O 
  O9       1.0000 0.94205  0.34548  0.37045  Biso   1.000  O 
  Al3      1.0000 0.61431  0.22713  0.32730  Biso   1.000  Al
  Ba4      1.0000 0.14529  0.82458  0.42568  Biso   1.000  Ba
  O10      1.0000 0.24572  0.23250  0.45749  Biso   1.000  O 
  O11      1.0000 0.42263  0.66849  0.46268  Biso   1.000  O 
  O12      1.0000 0.46274  0.39354  0.35254  Biso   1.000  O 
  Al4      1.0000 0.24925  0.39416  0.40289  Biso   1.000  Al
  Ba5      1.0000 0.92044  0.15428  0.53509  Biso   1.000  Ba
  O13      1.0000 0.95436  0.80849  0.53310  Biso   1.000  O 
  O14      1.0000 0.71696  0.36143  0.58299  Biso   1.000  O 
  O15      1.0000 0.42810  0.57169  0.61100  Biso   1.000  O 
  In1      1.0000 0.58699  0.53549  0.52789  Biso   1.000  In
  Ba6      1.0000 0.24450  0.82043  0.62469  Biso   1.000  Ba
  O16      1.0000 0.98122  0.76969  0.72308  Biso   1.000  O 
  In2      1.0000 0.63878  0.48626  0.67302  Biso   1.000  In
  Ba7      1.0000 0.78799  0.97655  0.89580  Biso   1.000  Ba
  O17      1.0000 0.41587  0.22040  0.70802  Biso   1.000  O 
  In3      1.0000 0.27045  0.08651  0.78371  Biso   1.000  In
  Ba8      1.0000 0.29011  0.61981  0.06033  Biso   1.000  Ba
  O18      1.0000 0.19367  0.22770  0.86583  Biso   1.000  O 
  O19      1.0000 0.73989  0.70351  0.95972  Biso   1.000  O 
  O20      1.0000 0.55552  0.12377  0.85179  Biso   1.000  O 
  In4      1.0000 0.54481  0.34770  0.93412  Biso   1.000  In
