data_image0
_cell_length_a       5.8
_cell_length_b       5.79957
_cell_length_c       20.8008
_cell_angle_alpha    90
_cell_angle_beta     90
_cell_angle_gamma    120.002

_symmetry_space_group_name_H-M    "P 1"
_symmetry_int_tables_number       1

loop_
  _symmetry_equiv_pos_as_xyz
  'x, y, z'

loop_
  _atom_site_label
  _atom_site_occupancy
  _atom_site_fract_x
  _atom_site_fract_y
  _atom_site_fract_z
  _atom_site_thermal_displace_type
  _atom_site_B_iso_or_equiv
  _atom_site_type_symbol
  Ba1      1.0000 0.00719  0.99725  0.06201  Biso   1.000  Ba
  O1       1.0000 0.02393  0.49534  0.05777  Biso   1.000  O 
  O2       1.0000 0.53487  0.01528  0.05663  Biso   1.000  O 
  O3       1.0000 0.50474  0.49077  0.05665  Biso   1.000  O 
  Al1      1.0000 0.65353  0.29873  0.10949  Biso   1.000  Al
  Ba2      1.0000 0.31356  0.64650  0.17819  Biso   1.000  Ba
  O4       1.0000 0.30362  0.13855  0.18373  Biso   1.000  O 
  O5       1.0000 0.83011  0.66801  0.16983  Biso   1.000  O 
  O6       1.0000 0.82505  0.16888  0.17115  Biso   1.000  O 
  Al2      1.0000 0.00050  0.98804  0.23417  Biso   1.000  Al
  Ba3      1.0000 0.67473  0.37021  0.29440  Biso   1.000  Ba
  O7       1.0000 0.65662  0.84971  0.28860  Biso   1.000  O 
  O8       1.0000 0.15076  0.29432  0.28808  Biso   1.000  O 
  O9       1.0000 0.17741  0.84804  0.29529  Biso   1.000  O 
  Al3      1.0000 0.99501  0.99400  0.34626  Biso   1.000  Al
  Ba4      1.0000 0.31634  0.65750  0.41734  Biso   1.000  Ba
  O10      1.0000 0.32171  0.13156  0.41382  Biso   1.000  O 
  O11      1.0000 0.81996  0.65319  0.41520  Biso   1.000  O 
  O12      1.0000 0.86038  0.18521  0.40822  Biso   1.000  O 
  Al4      1.0000 0.66638  0.34342  0.47584  Biso   1.000  Al
  Ba5      1.0000 0.98989  0.99630  0.52473  Biso   1.000  Ba
  O13      1.0000 0.98746  0.51618  0.53657  Biso   1.000  O 
  O14      1.0000 0.50875  0.01998  0.53179  Biso   1.000  O 
  O15      1.0000 0.49248  0.50720  0.53744  Biso   1.000  O 
  In1      1.0000 0.68337  0.36797  0.57635  Biso   1.000  In
  Ba6      1.0000 0.34837  0.66840  0.66082  Biso   1.000  Ba
  O16      1.0000 0.98180  0.96043  0.66120  Biso   1.000  O 
  In2      1.0000 0.68928  0.36625  0.73308  Biso   1.000  In
  Ba7      1.0000 0.98107  0.99001  0.81329  Biso   1.000  Ba
  O17      1.0000 0.33373  0.65612  0.81136  Biso   1.000  O 
  In3      1.0000 0.67973  0.35611  0.87883  Biso   1.000  In
  Ba8      1.0000 0.32378  0.65886  0.93407  Biso   1.000  Ba
  O18      1.0000 0.34104  0.17186  0.94113  Biso   1.000  O 
  O19      1.0000 0.81520  0.63849  0.93908  Biso   1.000  O 
  O20      1.0000 0.81944  0.15069  0.94033  Biso   1.000  O 
  In4      1.0000 0.69415  0.37438  0.00084  Biso   1.000  In
