data_image0
_cell_length_a       7.91033
_cell_length_b       7.91033
_cell_length_c       7.91031
_cell_angle_alpha    90
_cell_angle_beta     90
_cell_angle_gamma    90

_symmetry_space_group_name_H-M    "P 1"
_symmetry_int_tables_number       1

loop_
  _symmetry_equiv_pos_as_xyz
  'x, y, z'

loop_
  _atom_site_label
  _atom_site_occupancy
  _atom_site_fract_x
  _atom_site_fract_y
  _atom_site_fract_z
  _atom_site_thermal_displace_type
  _atom_site_B_iso_or_equiv
  _atom_site_type_symbol
  Sr1      1.0000 0.01242  0.99654  0.01619  Biso   1.000  Sr
  O1       1.0000 0.26242  0.24654  0.01619  Biso   1.000  O 
  Sr2      1.0000 0.01242  0.49654  0.01619  Biso   1.000  Sr
  O2       1.0000 0.26242  0.74654  0.01619  Biso   1.000  O 
  Sr3      1.0000 0.51242  0.99654  0.01619  Biso   1.000  Sr
  O3       1.0000 0.76242  0.24654  0.01619  Biso   1.000  O 
  Sr4      1.0000 0.51242  0.49654  0.01619  Biso   1.000  Sr
  O4       1.0000 0.76242  0.74654  0.01619  Biso   1.000  O 
  Ti1      1.0000 0.26242  0.24654  0.26619  Biso   1.000  Ti
  O5       1.0000 0.51242  0.24654  0.26619  Biso   1.000  O 
  O6       1.0000 0.26242  0.49654  0.26619  Biso   1.000  O 
  Ti2      1.0000 0.26242  0.74654  0.26619  Biso   1.000  Ti
  O7       1.0000 0.51242  0.74654  0.26619  Biso   1.000  O 
  O8       1.0000 0.26242  0.99654  0.26619  Biso   1.000  O 
  Ti3      1.0000 0.76242  0.24654  0.26619  Biso   1.000  Ti
  O9       1.0000 0.01242  0.24654  0.26619  Biso   1.000  O 
  O10      1.0000 0.76242  0.49654  0.26619  Biso   1.000  O 
  Ti4      1.0000 0.76242  0.74654  0.26619  Biso   1.000  Ti
  O11      1.0000 0.01242  0.74654  0.26619  Biso   1.000  O 
  O12      1.0000 0.76242  0.99654  0.26619  Biso   1.000  O 
  Sr5      1.0000 0.01242  0.99654  0.51619  Biso   1.000  Sr
  O13      1.0000 0.26242  0.24654  0.51619  Biso   1.000  O 
  Sr6      1.0000 0.01242  0.49654  0.51619  Biso   1.000  Sr
  O14      1.0000 0.26242  0.74654  0.51619  Biso   1.000  O 
  Sr7      1.0000 0.51242  0.99654  0.51619  Biso   1.000  Sr
  O15      1.0000 0.76242  0.24654  0.51619  Biso   1.000  O 
  Sr8      1.0000 0.51242  0.49654  0.51619  Biso   1.000  Sr
  O16      1.0000 0.76242  0.74654  0.51619  Biso   1.000  O 
  Ti5      1.0000 0.26242  0.24654  0.76619  Biso   1.000  Ti
  O17      1.0000 0.51242  0.24654  0.76619  Biso   1.000  O 
  O18      1.0000 0.26242  0.49654  0.76619  Biso   1.000  O 
  Ti6      1.0000 0.26242  0.74654  0.76619  Biso   1.000  Ti
  O19      1.0000 0.51242  0.74654  0.76619  Biso   1.000  O 
  O20      1.0000 0.26242  0.99654  0.76619  Biso   1.000  O 
  Ti7      1.0000 0.76242  0.24654  0.76619  Biso   1.000  Ti
  O21      1.0000 0.01242  0.24654  0.76619  Biso   1.000  O 
  O22      1.0000 0.76242  0.49654  0.76619  Biso   1.000  O 
  Ti8      1.0000 0.76242  0.74654  0.76619  Biso   1.000  Ti
  O23      1.0000 0.01242  0.74654  0.76619  Biso   1.000  O 
  O24      1.0000 0.76242  0.99654  0.76619  Biso   1.000  O 
