data_image0
_cell_length_a       6.02924
_cell_length_b       6.04736
_cell_length_c       20.1956
_cell_angle_alpha    95.136
_cell_angle_beta     84.4105
_cell_angle_gamma    121.247

_symmetry_space_group_name_H-M    "P 1"
_symmetry_int_tables_number       1

loop_
  _symmetry_equiv_pos_as_xyz
  'x, y, z'

loop_
  _atom_site_label
  _atom_site_occupancy
  _atom_site_fract_x
  _atom_site_fract_y
  _atom_site_fract_z
  _atom_site_thermal_displace_type
  _atom_site_B_iso_or_equiv
  _atom_site_type_symbol
  Ba1      1.0000 0.00719  0.99725  0.06201  Biso   1.000  Ba
  O1       1.0000 0.04791  0.47201  0.04178  Biso   1.000  O 
  O2       1.0000 0.50116  0.94067  0.05754  Biso   1.000  O 
  O3       1.0000 0.52871  0.51510  0.06185  Biso   1.000  O 
  In1      1.0000 0.65655  0.27751  0.00871  Biso   1.000  In
  Ba2      1.0000 0.40111  0.69699  0.16923  Biso   1.000  Ba
  O4       1.0000 0.88273  0.05522  0.19846  Biso   1.000  O 
  Al1      1.0000 0.00331  0.97457  0.25763  Biso   1.000  Al
  Ba3      1.0000 0.69648  0.30903  0.28579  Biso   1.000  Ba
  O5       1.0000 0.75882  0.77670  0.31636  Biso   1.000  O 
  O6       1.0000 0.18011  0.22566  0.31559  Biso   1.000  O 
  O7       1.0000 0.17239  0.82686  0.24029  Biso   1.000  O 
  In2      1.0000 0.03396  0.94863  0.39423  Biso   1.000  In
  Ba4      1.0000 0.36148  0.62228  0.38832  Biso   1.000  Ba
  O8       1.0000 0.42687  0.08433  0.40760  Biso   1.000  O 
  O9       1.0000 0.90925  0.56185  0.41292  Biso   1.000  O 
  O10      1.0000 0.85475  0.10595  0.46051  Biso   1.000  O 
  Al2      1.0000 0.69835  0.27907  0.45245  Biso   1.000  Al
  Ba5      1.0000 0.88133  0.03371  0.59056  Biso   1.000  Ba
  O11      1.0000 0.58734  0.36838  0.52246  Biso   1.000  O 
  Al3      1.0000 0.55217  0.36702  0.60352  Biso   1.000  Al
  Ba6      1.0000 0.19195  0.71935  0.70120  Biso   1.000  Ba
  O12      1.0000 0.27779  0.12589  0.64412  Biso   1.000  O 
  O13      1.0000 0.54970  0.62740  0.64687  Biso   1.000  O 
  O14      1.0000 0.78026  0.35981  0.64835  Biso   1.000  O 
  In3      1.0000 0.51759  0.38582  0.73279  Biso   1.000  In
  Ba7      1.0000 0.82501  0.06461  0.82634  Biso   1.000  Ba
  O15      1.0000 0.79877  0.64862  0.79653  Biso   1.000  O 
  O16      1.0000 0.44519  0.09020  0.79341  Biso   1.000  O 
  O17      1.0000 0.26327  0.43093  0.80114  Biso   1.000  O 
  In4      1.0000 0.49172  0.39407  0.87717  Biso   1.000  In
  Ba8      1.0000 0.16569  0.74393  0.87996  Biso   1.000  Ba
  O18      1.0000 0.28052  0.13452  0.95345  Biso   1.000  O 
  O19      1.0000 0.49751  0.69477  0.93734  Biso   1.000  O 
  O20      1.0000 0.78697  0.36601  0.91383  Biso   1.000  O 
  Al4      1.0000 0.37160  0.63160  0.01710  Biso   1.000  Al
