data_image0
_cell_length_a       6.023
_cell_length_b       6.03223
_cell_length_c       41.6694
_cell_angle_alpha    95.9676
_cell_angle_beta     84.705
_cell_angle_gamma    119.152

_symmetry_space_group_name_H-M    "P 1"
_symmetry_int_tables_number       1

loop_
  _symmetry_equiv_pos_as_xyz
  'x, y, z'

loop_
  _atom_site_label
  _atom_site_occupancy
  _atom_site_fract_x
  _atom_site_fract_y
  _atom_site_fract_z
  _atom_site_thermal_displace_type
  _atom_site_B_iso_or_equiv
  _atom_site_type_symbol
  Ba1      1.0000 0.67385  0.33058  0.03821  Biso   1.000  Ba
  O1       1.0000 0.93350  0.90658  0.05339  Biso   1.000  O 
  Al1      1.0000 0.95845  0.87247  0.09042  Biso   1.000  Al
  Ba2      1.0000 0.93604  0.15711  0.17543  Biso   1.000  Ba
  O2       1.0000 0.74269  0.58346  0.10228  Biso   1.000  O 
  O3       1.0000 0.21029  0.06212  0.11063  Biso   1.000  O 
  O4       1.0000 0.35581  0.47854  0.15369  Biso   1.000  O 
  Al2      1.0000 0.52208  0.36896  0.13064  Biso   1.000  Al
  Ba3      1.0000 0.23163  0.78745  0.15340  Biso   1.000  Ba
  O5       1.0000 0.64011  0.20211  0.14427  Biso   1.000  O 
  Al3      1.0000 0.16711  0.71607  0.30240  Biso   1.000  Al
  Ba4      1.0000 0.72169  0.70874  0.24293  Biso   1.000  Ba
  O6       1.0000 0.94847  0.81244  0.19410  Biso   1.000  O 
  Al4      1.0000 0.67221  0.20851  0.28329  Biso   1.000  Al
  Ba5      1.0000 0.63373  0.67205  0.34825  Biso   1.000  Ba
  O7       1.0000 0.46694  0.28617  0.26618  Biso   1.000  O 
  O8       1.0000 0.84313  0.48233  0.30722  Biso   1.000  O 
  O9       1.0000 0.93942  0.19695  0.26418  Biso   1.000  O 
  Al5      1.0000 0.18328  0.22523  0.28740  Biso   1.000  Al
  Ba6      1.0000 0.99405  0.34281  0.36841  Biso   1.000  Ba
  O10      1.0000 0.47458  0.89517  0.28894  Biso   1.000  O 
  O11      1.0000 0.23879  0.48627  0.31447  Biso   1.000  O 
  O12      1.0000 0.08442  0.95664  0.30787  Biso   1.000  O 
  In1      1.0000 0.33949  0.05224  0.41046  Biso   1.000  In
  Ba7      1.0000 0.66587  0.71745  0.43598  Biso   1.000  Ba
  O13      1.0000 0.62738  0.98988  0.38872  Biso   1.000  O 
  O14      1.0000 0.03247  0.70982  0.40083  Biso   1.000  O 
  O15      1.0000 0.34623  0.35580  0.39334  Biso   1.000  O 
  In2      1.0000 0.32493  0.10383  0.48993  Biso   1.000  In
  Ba8      1.0000 0.99527  0.39542  0.45044  Biso   1.000  Ba
  O16      1.0000 0.04550  0.03793  0.46188  Biso   1.000  O 
  O17      1.0000 0.56192  0.25190  0.45104  Biso   1.000  O 
  O18      1.0000 0.32837  0.73639  0.48054  Biso   1.000  O 
  Al6      1.0000 0.30287  0.66402  0.51977  Biso   1.000  Al
  Ba9      1.0000 0.99339  0.97359  0.57538  Biso   1.000  Ba
  O19      1.0000 0.00446  0.58945  0.53416  Biso   1.000  O 
  O20      1.0000 0.43920  0.00294  0.53297  Biso   1.000  O 
  O21      1.0000 0.39297  0.43675  0.52481  Biso   1.000  O 
  In3      1.0000 0.67328  0.34969  0.55505  Biso   1.000  In
  Ba10     1.0000 0.27755  0.64381  0.61837  Biso   1.000  Ba
  O22      1.0000 0.25823  0.04030  0.61860  Biso   1.000  O 
  O23      1.0000 0.61164  0.55719  0.59496  Biso   1.000  O 
  O24      1.0000 0.82433  0.24944  0.59134  Biso   1.000  O 
  In4      1.0000 0.61461  0.31677  0.62921  Biso   1.000  In
  Ba11     1.0000 0.02389  0.00556  0.67371  Biso   1.000  Ba
  O25      1.0000 0.93371  0.53031  0.66174  Biso   1.000  O 
  O26      1.0000 0.61965  0.04657  0.67300  Biso   1.000  O 
  O27      1.0000 0.47455  0.41384  0.67807  Biso   1.000  O 
  Al7      1.0000 0.69911  0.34326  0.69064  Biso   1.000  Al
  Ba12     1.0000 0.32424  0.70944  0.71873  Biso   1.000  Ba
  O28      1.0000 0.26962  0.08115  0.74242  Biso   1.000  O 
  O29      1.0000 0.53353  0.69410  0.76787  Biso   1.000  O 
  O30      1.0000 0.82974  0.41975  0.72653  Biso   1.000  O 
  In5      1.0000 0.56684  0.37294  0.76456  Biso   1.000  In
  Ba13     1.0000 0.93587  0.03919  0.77970  Biso   1.000  Ba
  O31      1.0000 0.82312  0.37916  0.79703  Biso   1.000  O 
  Al8      1.0000 0.62886  0.32546  0.83209  Biso   1.000  Al
  Ba14     1.0000 0.26643  0.66298  0.82387  Biso   1.000  Ba
  O32      1.0000 0.37024  0.30080  0.81529  Biso   1.000  O 
  O33      1.0000 0.82564  0.53385  0.86099  Biso   1.000  O 
  O34      1.0000 0.55085  0.05492  0.85146  Biso   1.000  O 
  In6      1.0000 0.69792  0.24189  0.89559  Biso   1.000  In
  Ba15     1.0000 0.01974  0.88615  0.91127  Biso   1.000  Ba
  O35      1.0000 0.96567  0.49158  0.92787  Biso   1.000  O 
  O36      1.0000 0.67768  0.97471  0.92578  Biso   1.000  O 
  O37      1.0000 0.42053  0.24817  0.92763  Biso   1.000  O 
  In7      1.0000 0.67757  0.25542  0.96397  Biso   1.000  In
  Ba16     1.0000 0.34931  0.58968  0.95653  Biso   1.000  Ba
  O38      1.0000 0.35936  0.02377  0.99508  Biso   1.000  O 
  O39      1.0000 0.72537  0.59304  0.99133  Biso   1.000  O 
  O40      1.0000 0.92659  0.22303  0.99531  Biso   1.000  O 
  In8      1.0000 0.99625  0.94417  0.00458  Biso   1.000  In
